LTspice 24.1.10 for Windows
Circuit: D:\HS Bremen\WiSe 3 (2025-2026)\SEELEK\Labour\Labor 2\simulation 3\C4 HSS 3.net
Start Time: Mon Dec 15 12:00:42 2025
solver = Normal
Maximum thread count: 8
tnom = 27
temp = 27
method = trap
D:\HS Bremen\WiSe 3 (2025-2026)\SEELEK\Labour\Labor 2\simulation 3\C4 HSS 3.net(8): Limiting rise time to 1.6e-05.

V2 N004 N005 PULSE(0 10 0 0 0 {d*1/fs}{1/fs})
^^^^^^^^^^^^^^^^^^^^^^^^^^^^^^^^^^^^^^^^^^^^^
D:\HS Bremen\WiSe 3 (2025-2026)\SEELEK\Labour\Labor 2\simulation 3\C4 HSS 3.net(8): Limiting fall time to 1.6e-05.

V2 N004 N005 PULSE(0 10 0 0 0 {d*1/fs}{1/fs})
^^^^^^^^^^^^^^^^^^^^^^^^^^^^^^^^^^^^^^^^^^^^^
WARNING: Node n005 is floating.

Per .tran options, skipping operating point for transient analysis.
.step r=100
.step r=200
.step r=400
Total elapsed time: 2.323 seconds.

Files loaded:
D:\HS Bremen\WiSe 3 (2025-2026)\SEELEK\Labour\Labor 2\simulation 3\C4 HSS 3.net
C:\Users\Simon\AppData\Local\LTspice\lib\cmp\standard.dio


Measurement: delta_i
  step	PP(I(Rv))	FROM	TO
     1	1.81803558941	0	0.04
     2	1.7390269361	0	0.04
     3	1.7256841894	0	0.04

Measurement: ie_eff
  step	RMS(I(Rv))	FROM	TO
     1	1.05572159868	0	0.04
     2	1.02323038972	0	0.04
     3	1.00929345458	0	0.04

Measurement: delta_u
  step	PP(V(Ua))	FROM	TO
     1	4.21078491211	0	0.04
     2	9.3290271759	0	0.04
     3	14.6290817261	0	0.04

Measurement: ua_eff
  step	RMS(V(Ua))	FROM	TO
     1	21.1384357791	0	0.04
     2	25.9698706237	0	0.04
     3	29.8221459194	0	0.04
