LTspice 24.1.10 for Windows
Circuit: D:\HS Bremen\WiSe 3 (2025-2026)\SEELEK\Labour\Labor 2\simulation 2\C4 HSS 2.net
Start Time: Sun Dec 14 15:38:45 2025
solver = Normal
Maximum thread count: 8
tnom = 27
temp = 27
method = trap
D:\HS Bremen\WiSe 3 (2025-2026)\SEELEK\Labour\Labor 2\simulation 2\C4 HSS 2.net(8): Limiting rise time to 1.6e-05.

V2 N004 N005 PULSE(0 10 0 0 0 {d*1/fs}{1/fs})
^^^^^^^^^^^^^^^^^^^^^^^^^^^^^^^^^^^^^^^^^^^^^
D:\HS Bremen\WiSe 3 (2025-2026)\SEELEK\Labour\Labor 2\simulation 2\C4 HSS 2.net(8): Limiting fall time to 1.6e-05.

V2 N004 N005 PULSE(0 10 0 0 0 {d*1/fs}{1/fs})
^^^^^^^^^^^^^^^^^^^^^^^^^^^^^^^^^^^^^^^^^^^^^
WARNING: Node n005 is floating.

Per .tran options, skipping operating point for transient analysis.
.step fs=2500
.step fs=5000
.step fs=7500
Total elapsed time: 2.728 seconds.

Files loaded:
D:\HS Bremen\WiSe 3 (2025-2026)\SEELEK\Labour\Labor 2\simulation 2\C4 HSS 2.net
C:\Users\Simon\AppData\Local\LTspice\lib\cmp\standard.dio


Measurement: delta_i
  step	PP(I(Rv))	FROM	TO
     1	1.81803558941	0	0.04
     2	1.23685863614	0	0.04
     3	0.945555746555	0	0.04

Measurement: ie_eff
  step	RMS(I(Rv))	FROM	TO
     1	1.05572159868	0	0.04
     2	0.81831667697	0	0.04
     3	0.773118734883	0	0.04

Measurement: delta_u
  step	PP(V(Ua))	FROM	TO
     1	4.21078491211	0	0.04
     2	3.59169578552	0	0.04
     3	3.60050392151	0	0.04

Measurement: ua_eff
  step	RMS(V(Ua))	FROM	TO
     1	21.1384357791	0	0.04
     2	21.4692794744	0	0.04
     3	21.6060982647	0	0.04
